Info: SIMULATION PARAMETERS:
Info: TIMESTEP               2
Info: NUMBER OF STEPS        0
Info: STEPS PER CYCLE        10
Info: FIRST LDB TIMESTEP     50
Info: LAST LDB TIMESTEP     -1
Info: HOM BACKGROUND SCALING 1
Info: MIN ATOMS PER PATCH    40
Info: EMPTY PATCH LOAD       40 ATOMS
Info: INITIAL TEMPERATURE    300
Info: CENTER OF MASS MOVING INITIALLY? NO
Info: DIELECTRIC             1
Info: EXCLUDE                SCALED ONE-FOUR
Info: 1-4 ELECTROSTATICS SCALED BY 1
Info: MODIFIED 1-4 VDW PARAMETERS WILL BE USED
Info: DCD FILENAME           step5_smd.dcd
Info: DCD FREQUENCY          500
Info: DCD FIRST STEP         500
Info: NO EXTENDED SYSTEM TRAJECTORY OUTPUT
Info: NO VELOCITY DCD OUTPUT
Info: NO FORCE DCD OUTPUT
Info: OUTPUT FILENAME        step5_smd
Info: NO RESTART FILE
Info: SWITCHING ACTIVE
Info: SWITCHING ON           10
Info: SWITCHING OFF          12
Info: PAIRLIST DISTANCE      13.5
Info: PAIRLIST SHRINK RATE   0.01
Info: PAIRLIST GROW RATE     0.01
Info: PAIRLIST TRIGGER       0.3
Info: PAIRLISTS PER CYCLE    2
Info: PAIRLISTS ENABLED
Info: MARGIN                 0
Info: HYDROGEN GROUP CUTOFF  2.5
Info: PATCH DIMENSION        16
Info: ENERGY OUTPUT STEPS    100
Info: ENERGY EVALUATION STEPS    100
Info: OUTPUT ENERGY PRECISION 4
Info: CROSSTERM ENERGY INCLUDED IN DIHEDRAL
Info: TIMING OUTPUT STEPS    1000
Info: TCL GLOBAL FORCES ACTIVE
Info: TCL GLOBAL FORCES SCRIPT   smd.tcl
Info: LANGEVIN DYNAMICS ACTIVE
Info: LANGEVIN TEMPERATURE   300
Info: LANGEVIN USING BBK INTEGRATOR
Info: LANGEVIN DAMPING COEFFICIENT IS 1 INVERSE PS
Info: LANGEVIN DYNAMICS NOT APPLIED TO HYDROGENS
Info: USING VERLET I (r-RESPA) MTS SCHEME.
Info: C1 SPLITTING OF LONG RANGE ELECTROSTATICS
Info: PLACING ATOMS IN PATCHES BY HYDROGEN GROUPS
Info: RIGID BONDS TO HYDROGEN : ALL
Info:         ERROR TOLERANCE : 1e-08
Info:          MAX ITERATIONS : 100
Info: RIGID WATER USING SETTLE ALGORITHM
Info: RANDOM NUMBER SEED     1743945236
Info: USE HYDROGEN BONDS?    NO
Info: COORDINATE PDB         step5_input.pdb
Info: STRUCTURE FILE         step5_input.psf
Info: PARAMETER file: CHARMM format!
Info: PARAMETERS             toppar/par_all36_cgenff.prm
Info: PARAMETERS             toppar/par_interface.prm
Info: PARAMETERS             toppar/par_all36m_prot.prm
Info: PARAMETERS             toppar/par_all36_carb.prm
Info: PARAMETERS             toppar/adn.prm
Info: PARAMETERS             toppar/par_all36_lipid.prm
Info: PARAMETERS             toppar/par_all36_na.prm
Info: PARAMETERS             toppar/toppar_water_ions.str
Info: USING ARITHMETIC MEAN TO COMBINE L-J SIGMA PARAMETERS
Info: SUMMARY OF PARAMETERS:
Info: 1247 BONDS
Info: 4045 ANGLES
Info: 10998 DIHEDRAL
Info: 271 IMPROPER
Info: 6 CROSSTERM
Info: 485 VDW
Info: 99 VDW_PAIRS
Info: 0 NBTHOLE_PAIRS
Info: STRUCTURE SUMMARY:
Info: 63779 ATOMS
Info: 50930 BONDS
Info: 61301 ANGLES
Info: 68289 DIHEDRALS
Info: 1140 IMPROPERS
Info: 313 CROSSTERMS
Info: 0 EXCLUSIONS
Info: 53224 RIGID BONDS
Info: 138113 DEGREES OF FREEDOM
Info: 23241 HYDROGEN GROUPS
Info: 4 ATOMS IN LARGEST HYDROGEN GROUP
Info: 23241 MIGRATION GROUPS
Info: 4 ATOMS IN LARGEST MIGRATION GROUP
Info: TOTAL MASS = 383026 amu
Info: TOTAL CHARGE = 1.08369e-05 e
Info: ADDED 180264 IMPLICIT EXCLUSIONS
Info: NONBONDED TABLE R-SQUARED SPACING: 0.0625
Info: NONBONDED TABLE SIZE: 769 POINTS
Info: ORIGINAL ATOMS MINMAX IS -44.246 -43.958 -54.451  44.603 44.979 54.417
Info: ADJUSTED ATOMS MINMAX IS -40.1895 -40.1067 -53.9721  40.5655 40.6007 54.3591
Info: REMOVING COM VELOCITY -0.0313428 0.00177325 -0.0108215
Info: Updated CUDA force table with 4096 elements.
Info: Updated CUDA LJ table with 485 x 485 elements.
Info: Found 399 unique exclusion lists needing 5220 bytes
TCL: Running for 200000 steps
ETITLE: TS BOND ANGLE DIHED IMPRP ELECT VDW BOUNDARY MISC KINETIC TOTAL TEMP POTENTIAL TOTAL3 TEMPAVG
ENERGY: 0 564.6960 4921.9241 11183.8302 87.7594 -157391.0024 13787.7581 0.0000 0.0000 41047.8435 -85797.1911 299.1205 -126845.0346 -85759.8623 299.1205
ENERGY: 21500 3257.6789 15370.0838 11443.9287 240.2584 -172064.4924 6337.6926 0.0000 0.0000 40856.1868 -94558.6632 297.7239 -135414.8499 -94276.0030 298.3293
ENERGY: 43000 3292.3753 15188.1636 11299.4932 254.0635 -172536.5265 6156.6106 0.0000 0.0000 41093.5278 -95252.2926 299.4534 -136345.8204 -94975.8578 298.3539
ENERGY: 64500 3190.7103 15288.8513 11370.7839 239.1796 -171847.4826 5981.3444 0.0000 0.0000 40834.7178 -94941.8954 297.5674 -135776.6132 -94667.1151 299.0701
ENERGY: 86000 3206.2554 15209.0240 11366.3663 268.5677 -172221.1200 6209.0285 0.0000 0.0000 41078.2834 -94883.5946 299.3423 -135961.8780 -94601.1798 299.8570
ENERGY: 107500 3236.0012 15164.5115 11318.3711 244.3094 -172179.4173 5992.3612 0.0000 0.0000 41091.7311 -95132.1319 299.4403 -136223.8630 -94860.5658 299.8681
TCL: Exiting due to exit command.
