Info: SIMULATION PARAMETERS:
Info: TIMESTEP               2
Info: NUMBER OF STEPS        0
Info: STEPS PER CYCLE        10
Info: FIRST LDB TIMESTEP     50
Info: LAST LDB TIMESTEP     -1
Info: HOM BACKGROUND SCALING 1
Info: MIN ATOMS PER PATCH    40
Info: EMPTY PATCH LOAD       40 ATOMS
Info: INITIAL TEMPERATURE    300
Info: CENTER OF MASS MOVING INITIALLY? NO
Info: DIELECTRIC             1
Info: EXCLUDE                SCALED ONE-FOUR
Info: 1-4 ELECTROSTATICS SCALED BY 1
Info: MODIFIED 1-4 VDW PARAMETERS WILL BE USED
Info: DCD FILENAME           step5_smd.dcd
Info: DCD FREQUENCY          500
Info: DCD FIRST STEP         500
Info: NO EXTENDED SYSTEM TRAJECTORY OUTPUT
Info: NO VELOCITY DCD OUTPUT
Info: NO FORCE DCD OUTPUT
Info: OUTPUT FILENAME        step5_smd
Info: NO RESTART FILE
Info: SWITCHING ACTIVE
Info: SWITCHING ON           10
Info: SWITCHING OFF          12
Info: PAIRLIST DISTANCE      13.5
Info: PAIRLIST SHRINK RATE   0.01
Info: PAIRLIST GROW RATE     0.01
Info: PAIRLIST TRIGGER       0.3
Info: PAIRLISTS PER CYCLE    2
Info: PAIRLISTS ENABLED
Info: MARGIN                 0
Info: HYDROGEN GROUP CUTOFF  2.5
Info: PATCH DIMENSION        16
Info: ENERGY OUTPUT STEPS    100
Info: ENERGY EVALUATION STEPS    100
Info: OUTPUT ENERGY PRECISION 4
Info: CROSSTERM ENERGY INCLUDED IN DIHEDRAL
Info: TIMING OUTPUT STEPS    1000
Info: TCL GLOBAL FORCES ACTIVE
Info: TCL GLOBAL FORCES SCRIPT   smd.tcl
Info: LANGEVIN DYNAMICS ACTIVE
Info: LANGEVIN TEMPERATURE   300
Info: LANGEVIN USING BBK INTEGRATOR
Info: LANGEVIN DAMPING COEFFICIENT IS 1 INVERSE PS
Info: LANGEVIN DYNAMICS NOT APPLIED TO HYDROGENS
Info: USING VERLET I (r-RESPA) MTS SCHEME.
Info: C1 SPLITTING OF LONG RANGE ELECTROSTATICS
Info: PLACING ATOMS IN PATCHES BY HYDROGEN GROUPS
Info: RIGID BONDS TO HYDROGEN : ALL
Info:         ERROR TOLERANCE : 1e-08
Info:          MAX ITERATIONS : 100
Info: RIGID WATER USING SETTLE ALGORITHM
Info: RANDOM NUMBER SEED     1743949260
Info: USE HYDROGEN BONDS?    NO
Info: COORDINATE PDB         step5_input.pdb
Info: STRUCTURE FILE         step5_input.psf
Info: PARAMETER file: CHARMM format!
Info: PARAMETERS             toppar/par_all36_cgenff.prm
Info: PARAMETERS             toppar/par_interface.prm
Info: PARAMETERS             toppar/par_all36m_prot.prm
Info: PARAMETERS             toppar/par_all36_carb.prm
Info: PARAMETERS             toppar/unk.prm
Info: PARAMETERS             toppar/par_all36_lipid.prm
Info: PARAMETERS             toppar/par_all36_na.prm
Info: PARAMETERS             toppar/toppar_water_ions.str
Info: USING ARITHMETIC MEAN TO COMBINE L-J SIGMA PARAMETERS
Info: SUMMARY OF PARAMETERS:
Info: 1247 BONDS
Info: 4047 ANGLES
Info: 11010 DIHEDRAL
Info: 271 IMPROPER
Info: 6 CROSSTERM
Info: 485 VDW
Info: 99 VDW_PAIRS
Info: 0 NBTHOLE_PAIRS
Info: STRUCTURE SUMMARY:
Info: 80716 ATOMS
Info: 64394 BONDS
Info: 77511 ANGLES
Info: 86091 DIHEDRALS
Info: 1241 IMPROPERS
Info: 313 CROSSTERMS
Info: 0 EXCLUSIONS
Info: 67542 RIGID BONDS
Info: 174606 DEGREES OF FREEDOM
Info: 29266 HYDROGEN GROUPS
Info: 4 ATOMS IN LARGEST HYDROGEN GROUP
Info: 29266 MIGRATION GROUPS
Info: 4 ATOMS IN LARGEST MIGRATION GROUP
Info: TOTAL MASS = 482908 amu
Info: TOTAL CHARGE = 1.35489e-05 e
Info: ADDED 227740 IMPLICIT EXCLUSIONS
Info: NONBONDED TABLE R-SQUARED SPACING: 0.0625
Info: NONBONDED TABLE SIZE: 769 POINTS
Info: ORIGINAL ATOMS MINMAX IS -49.637 -49.422 -54.374  50.241 49.618 54.329
Info: ADJUSTED ATOMS MINMAX IS -45.1347 -45.1184 -53.8735  45.1827 45.5054 54.1515
Info: REMOVING COM VELOCITY 0.0332916 -0.0283381 0.0187132
Info: Updated CUDA force table with 4096 elements.
Info: Updated CUDA LJ table with 485 x 485 elements.
Info: Found 395 unique exclusion lists needing 5220 bytes
TCL: Running for 300000 steps
ETITLE: TS BOND ANGLE DIHED IMPRP ELECT VDW BOUNDARY MISC KINETIC TOTAL TEMP POTENTIAL TOTAL3 TEMPAVG
ENERGY: 0 813.8364 8443.0360 14121.0751 131.0303 -198554.6930 19544.8161 0.0000 0.0000 51958.7828 -103542.1163 299.4954 -155500.8991 -103489.3958 299.4954
ENERGY: 19100 4029.7618 19478.5576 14250.1552 287.2602 -216918.5546 7953.3406 0.0000 0.0000 51878.5959 -119040.8833 299.0332 -170919.4792 -118701.8612 299.8063
ENERGY: 38300 3990.0747 19115.5789 14073.7003 265.9905 -217524.8044 7670.8688 0.0000 0.0000 51901.8825 -120506.7088 299.1674 -172408.5913 -120171.3357 298.0683
ENERGY: 57400 3930.1276 19286.2616 13997.4948 289.1306 -217359.6110 7608.2985 0.0000 0.0000 51598.1442 -120650.1537 297.4167 -172248.2980 -120300.6204 298.9794
ENERGY: 76600 3914.4667 19109.0017 14059.5367 282.9183 -217815.3021 7713.4691 0.0000 0.0000 51979.4299 -120756.4798 299.6144 -172735.9097 -120403.1869 298.8600
ENERGY: 95700 3990.9261 19336.5969 14008.9947 289.1735 -217575.2708 7667.1277 0.0000 0.0000 52150.6631 -120131.7887 300.6014 -172282.4518 -119785.8698 300.9744
TCL: Exiting due to exit command.
